306
CSIRO Nanostructure Data Bank - Graphene Nanoflakes
C         30.52700       28.90500        0.00000
C         29.30600       29.61000        0.00000
C         30.52700       31.72500        0.00000
C         29.30600       31.02000        0.00000
C         30.52700       33.13500        0.00000
C         29.30600       33.84000        0.00000
C         30.52700       35.95500        0.00000
C         29.30600       35.25000        0.00000
C         30.52700       37.36500        0.00000
C         29.30600       38.07000        0.00000
C         30.52700       40.18500        0.00000
C         29.30600       39.48000        0.00000
C         30.52700       41.59500        0.00000
C         29.30600       42.30000        0.00000
C         30.52700       44.41500        0.00000
C         29.30600       43.71000        0.00000
C         32.97000       27.49500        0.00000
C         32.97000       28.90500        0.00000
C         31.74800       29.61000        0.00000
C         32.97000       31.72500        0.00000
C         31.74800       31.02000        0.00000
C         32.97000       33.13500        0.00000
C         31.74800       33.84000        0.00000
C         32.97000       35.95500        0.00000
C         31.74800       35.25000        0.00000
C         32.97000       37.36500        0.00000
C         31.74800       38.07000        0.00000
C         32.97000       40.18500        0.00000
C         31.74800       39.48000        0.00000
C         32.97000       41.59500        0.00000
C         31.74800       42.30000        0.00000
C         32.97000       44.41500        0.00000
C         31.74800       43.71000        0.00000
C         32.97000       45.82500        0.00000
C         35.41200       27.49500        0.00000
C         34.19100       26.79000        0.00000
C         35.41200       28.90500        0.00000
C         34.19100       29.61000        0.00000
C         35.41200       31.72500        0.00000
C         34.19100       31.02000        0.00000
C         35.41200       33.13500        0.00000
C         34.19100       33.84000        0.00000
C         35.41200       35.95500        0.00000
C         34.19100       35.25000        0.00000
C         35.41200       37.36500        0.00000
C         34.19100       38.07000        0.00000
C         35.41200       40.18500        0.00000
C         34.19100       39.48000        0.00000
C         35.41200       41.59500        0.00000
C         34.19100       42.30000        0.00000
C         35.41200       44.41500        0.00000
C         34.19100       43.71000        0.00000
C         35.41200       45.82500        0.00000
C         34.19100       46.53000        0.00000
C         37.85400       24.67500        0.00000
C         36.63300       25.38000        0.00000
C         37.85400       27.49500        0.00000
C         36.63300       26.79000        0.00000
C         37.85400       28.90500        0.00000
C         36.63300       29.61000        0.00000
C         37.85400       31.72500        0.00000
C         36.63300       31.02000        0.00000
C         37.85400       33.13500        0.00000
C         36.63300       33.84000        0.00000
C         37.85400       35.95500        0.00000
C         36.63300       35.25000        0.00000
C         37.85400       37.36500        0.00000
C         36.63300       38.07000        0.00000
C         37.85400       40.18500        0.00000
C         36.63300       39.48000        0.00000
C         37.85400       41.59500        0.00000
C         36.63300       42.30000        0.00000
C         37.85400       44.41500        0.00000
C         36.63300       43.71000        0.00000
C         37.85400       45.82500        0.00000
C         36.63300       46.53000        0.00000
C         37.85400       48.64500        0.00000
C         36.63300       47.94000        0.00000
C         40.29600       23.26500        0.00000
C         40.29600       24.67500        0.00000
C         39.07500       25.38000        0.00000
C         40.29600       27.49500        0.00000
C         39.07500       26.79000        0.00000
C         40.29600       28.90500        0.00000
C         39.07500       29.61000        0.00000
C         40.29600       31.72500        0.00000
C         39.07500       31.02000        0.00000
C         40.29600       33.13500        0.00000
C         39.07500       33.84000        0.00000
C         40.29600       35.95500        0.00000
C         39.07500       35.25000        0.00000
C         40.29600       37.36500        0.00000
C         39.07500       38.07000        0.00000
C         40.29600       40.18500        0.00000
C         39.07500       39.48000        0.00000
C         40.29600       41.59500        0.00000
C         39.07500       42.30000        0.00000
C         40.29600       44.41500        0.00000
C         39.07500       43.71000        0.00000
C         40.29600       45.82500        0.00000
C         39.07500       46.53000        0.00000
C         40.29600       48.64500        0.00000
C         39.07500       47.94000        0.00000
C         40.29600       50.05500        0.00000
C         42.73800       23.26500        0.00000
C         41.51700       22.56000        0.00000
C         42.73800       24.67500        0.00000
C         41.51700       25.38000        0.00000
C         42.73800       27.49500        0.00000
C         41.51700       26.79000        0.00000
C         42.73800       28.90500        0.00000
C         41.51700       29.61000        0.00000
C         42.73800       31.72500        0.00000
C         41.51700       31.02000        0.00000
C         42.73800       33.13500        0.00000
C         41.51700       33.84000        0.00000
C         42.73800       35.95500        0.00000
C         41.51700       35.25000        0.00000
C         42.73800       37.36500        0.00000
C         41.51700       38.07000        0.00000
C         42.73800       40.18500        0.00000
C         41.51700       39.48000        0.00000
C         42.73800       41.59500        0.00000
C         41.51700       42.30000        0.00000
C         42.73800       44.41500        0.00000
C         41.51700       43.71000        0.00000
C         42.73800       45.82500        0.00000
C         41.51700       46.53000        0.00000
C         42.73800       48.64500        0.00000
C         41.51700       47.94000        0.00000
C         42.73800       50.05500        0.00000
C         41.51700       50.76000        0.00000
C         45.18100       24.67500        0.00000
C         43.95900       25.38000        0.00000
C         45.18100       27.49500        0.00000
C         43.95900       26.79000        0.00000
C         45.18100       28.90500        0.00000
C         43.95900       29.61000        0.00000
C         45.18100       31.72500        0.00000
C         43.95900       31.02000        0.00000
C         45.18100       33.13500        0.00000
C         43.95900       33.84000        0.00000
C         45.18100       35.95500        0.00000
C         43.95900       35.25000        0.00000
C         45.18100       37.36500        0.00000
C         43.95900       38.07000        0.00000
C         45.18100       40.18500        0.00000
C         43.95900       39.48000        0.00000
C         45.18100       41.59500        0.00000
C         43.95900       42.30000        0.00000
C         45.18100       44.41500        0.00000
C         43.95900       43.71000        0.00000
C         45.18100       45.82500        0.00000
C         43.95900       46.53000        0.00000
C         45.18100       48.64500        0.00000
C         43.95900       47.94000        0.00000
C         46.40200       25.38000        0.00000
C         47.62300       27.49500        0.00000
C         46.40200       26.79000        0.00000
C         47.62300       28.90500        0.00000
C         46.40200       29.61000        0.00000
C         47.62300       31.72500        0.00000
C         46.40200       31.02000        0.00000
C         47.62300       33.13500        0.00000
C         46.40200       33.84000        0.00000
C         47.62300       35.95500        0.00000
C         46.40200       35.25000        0.00000
C         47.62300       37.36500        0.00000
C         46.40200       38.07000        0.00000
C         47.62300       40.18500        0.00000
C         46.40200       39.48000        0.00000
C         47.62300       41.59500        0.00000
C         46.40200       42.30000        0.00000
C         47.62300       44.41500        0.00000
C         46.40200       43.71000        0.00000
C         47.62300       45.82500        0.00000
C         46.40200       46.53000        0.00000
C         46.40200       47.94000        0.00000
C         50.06500       27.49500        0.00000
C         48.84400       26.79000        0.00000
C         50.06500       28.90500        0.00000
C         48.84400       29.61000        0.00000
C         50.06500       31.72500        0.00000
C         48.84400       31.02000        0.00000
C         50.06500       33.13500        0.00000
C         48.84400       33.84000        0.00000
C         50.06500       35.95500        0.00000
C         48.84400       35.25000        0.00000
C         50.06500       37.36500        0.00000
C         48.84400       38.07000        0.00000
C         50.06500       40.18500        0.00000
C         48.84400       39.48000        0.00000
C         50.06500       41.59500        0.00000
C         48.84400       42.30000        0.00000
C         50.06500       44.41500        0.00000
C         48.84400       43.71000        0.00000
C         50.06500       45.82500        0.00000
C         48.84400       46.53000        0.00000
C         52.50700       28.90500        0.00000
C         51.28600       29.61000        0.00000
C         52.50700       31.72500        0.00000
C         51.28600       31.02000        0.00000
C         52.50700       33.13500        0.00000
C         51.28600       33.84000        0.00000
C         52.50700       35.95500        0.00000
C         51.28600       35.25000        0.00000
C         52.50700       37.36500        0.00000
C         51.28600       38.07000        0.00000
C         52.50700       40.18500        0.00000
C         51.28600       39.48000        0.00000
C         52.50700       41.59500        0.00000
C         51.28600       42.30000        0.00000
C         52.50700       44.41500        0.00000
C         51.28600       43.71000        0.00000
C         53.72800       29.61000        0.00000
C         53.72800       31.02000        0.00000
C         53.72800       33.84000        0.00000
C         53.72800       35.25000        0.00000
C         53.72800       38.07000        0.00000
C         53.72800       39.48000        0.00000
C         53.72800       42.30000        0.00000
C         53.72800       43.71000        0.00000
H         30.52700       28.32800       -0.81700
H         30.52700       28.32800        0.81700
H         28.80600       29.32100       -0.81700
H         28.80600       29.32100        0.81700
H         28.80600       31.30900       -0.81700
H         28.80600       31.30900        0.81700
H         28.80600       33.55100       -0.81700
H         28.80600       33.55100        0.81700
H         28.80600       35.53900       -0.81700
H         28.80600       35.53900        0.81700
H         28.80600       37.78100       -0.81700
H         28.80600       37.78100        0.81700
H         28.80600       39.76900       -0.81700
H         28.80600       39.76900        0.81700
H         28.80600       42.01100       -0.81700
H         28.80600       42.01100        0.81700
H         30.52700       44.99200        0.81700
H         30.52700       44.99200       -0.81700
H         28.80600       43.99900       -0.81700
H         28.80600       43.99900        0.81700
H         32.47000       27.20600       -0.81700
H         32.47000       27.20600        0.81700
H         32.47000       46.11400       -0.81700
H         32.47000       46.11400        0.81700
H         34.19100       26.21300        0.81700
H         34.19100       26.21300       -0.81700
H         34.19100       47.10700       -0.81700
H         34.19100       47.10700        0.81700
H         37.85400       24.09800        0.81700
H         37.85400       24.09800       -0.81700
H         36.13300       25.09100       -0.81700
H         36.13300       25.09100        0.81700
H         37.85400       49.22200       -0.81700
H         37.85400       49.22200        0.81700
H         36.13300       48.22900       -0.81700
H         36.13300       48.22900        0.81700
H         39.79600       22.97600        0.81700
H         39.79600       22.97600       -0.81700
H         39.79600       50.34400       -0.81700
H         39.79600       50.34400        0.81700
H         43.23800       22.97600       -0.81700
H         43.23800       22.97600        0.81700
H         41.51700       21.98300        0.81700
H         41.51700       21.98300       -0.81700
H         43.23800       50.34400        0.81700
H         43.23800       50.34400       -0.81700
H         41.51700       51.33700       -0.81700
H         41.51700       51.33700        0.81700
H         45.18100       24.09800        0.81700
H         45.18100       24.09800       -0.81700
H         45.18100       49.22200       -0.81700
H         45.18100       49.22200        0.81700
H         46.90100       25.09100        0.81700
H         46.90100       25.09100       -0.81700
H         46.90100       48.22900       -0.81700
H         46.90100       48.22900        0.81700
H         50.56500       27.20600        0.81700
H         50.56500       27.20600       -0.81700
H         48.84400       26.21300        0.81700
H         48.84400       26.21300       -0.81700
H         50.56500       46.11400        0.81700
H         50.56500       46.11400       -0.81700
H         48.84400       47.10700       -0.81700
H         48.84400       47.10700        0.81700
H         52.50700       28.32800        0.81700
H         52.50700       28.32800       -0.81700
H         52.50700       44.99200       -0.81700
H         52.50700       44.99200        0.81700
H         54.22800       29.32100        0.81700
H         54.22800       29.32100       -0.81700
H         54.22800       31.30900       -0.81700
H         54.22800       31.30900        0.81700
H         54.22800       33.55100        0.81700
H         54.22800       33.55100       -0.81700
H         54.22800       35.53900       -0.81700
H         54.22800       35.53900        0.81700
H         54.22800       37.78100        0.81700
H         54.22800       37.78100       -0.81700
H         54.22800       39.76900       -0.81700
H         54.22800       39.76900        0.81700
H         54.22800       42.01100        0.81700
H         54.22800       42.01100       -0.81700
H         54.22800       43.99900       -0.81700
H         54.22800       43.99900        0.81700
