891

Pd 422.307 418.802 410.921
Pd 424.311 417.282 411.448
Pd 424.188 418.523 409.237
Pd 426.015 419.124 410.795
Pd 424.036 420.857 410.211
Pd 418.147 419.738 414.284
Pd 422.191 417.579 413.065
Pd 422.189 416.396 415.456
Pd 420.226 417.861 414.874
Pd 420.23 419.302 412.629
Pd 422.044 421.096 412.054
Pd 421.999 419.825 414.365
Pd 419.894 421.617 413.69
Pd 421.844 423.55 413.342
Pd 424.402 414.619 416.032
Pd 424.254 415.823 413.632
Pd 426.118 417.719 413.106
Pd 426.274 416.623 415.549
Pd 424.125 418.199 414.96
Pd 424.174 419.474 412.555
Pd 426.096 421.465 411.878
Pd 426.006 420.181 414.404
Pd 423.968 421.88 413.833
Pd 423.879 423.178 411.627
Pd 425.635 424 413.437
Pd 423.712 425.574 412.668
Pd 427.997 418.373 414.719
Pd 427.912 419.743 412.569
Pd 429.824 420.585 414.24
Pd 427.751 422.24 413.74
Pd 414.294 420.409 417.819
Pd 418.129 418.244 416.7
Pd 418.347 416.885 418.951
Pd 416.308 418.758 418.414
Pd 416.155 420.072 415.994
Pd 417.882 422.012 415.465
Pd 418.005 420.772 417.706
Pd 415.802 422.523 417.091
Pd 417.624 424.524 416.693
Pd 422.39 415.122 417.821
Pd 422.568 413.808 420.315
Pd 420.509 415.306 419.832
Pd 420.284 416.767 417.269
Pd 422.108 418.651 416.89
Pd 422.168 417.463 419.182
Pd 420.004 419.141 418.369
Pd 419.992 420.406 415.993
Pd 421.77 422.28 415.609
Pd 421.938 421.118 417.954
Pd 419.623 422.703 417.303
Pd 419.79 423.991 414.978
Pd 421.718 425.947 414.198
Pd 421.622 424.756 416.711
Pd 419.533 426.421 415.995
Pd 421.474 428.392 415.736
Pd 424.676 412.282 420.92
Pd 424.39 413.563 418.519
Pd 426.336 415.354 417.813
Pd 426.444 414.075 420.239
Pd 424.221 415.763 419.706
Pd 424.187 416.952 417.269
Pd 426.074 418.778 416.722
Pd 426.099 417.718 419.202
Pd 424.057 419.421 418.512
Pd 424.061 420.665 416.179
Pd 425.805 422.563 415.684
Pd 425.999 421.234 417.959
Pd 423.808 423.054 417.444
Pd 423.719 424.305 415.087
Pd 425.52 426.567 414.401
Pd 425.564 424.933 416.857
Pd 423.557 426.743 416.196
Pd 423.4 428.035 413.809
Pd 425.3 428.841 415.562
Pd 423.357 430.485 414.921
Pd 428.128 416.135 419.551
Pd 428.202 417.232 417.231
Pd 429.771 419.222 416.631
Pd 429.981 418.013 419.181
Pd 427.97 419.648 418.518
Pd 427.904 420.897 416.005
Pd 429.707 423.153 415.456
Pd 429.859 421.7 417.839
Pd 427.831 423.232 417.253
Pd 427.571 424.812 415.079
Pd 429.422 425.533 416.746
Pd 427.331 427.182 416.146
Pd 431.619 419.742 418.653
Pd 431.704 421.382 416.161
Pd 433.257 421.73 418.039
Pd 431.527 423.78 417.284
Pd 410.19 421.362 421.344
Pd 414.341 419.169 420.228
Pd 414.446 417.791 422.545
Pd 412.359 419.629 421.856
Pd 412.268 420.822 419.592
Pd 413.987 422.868 418.978
Pd 414.06 421.608 421.34
Pd 411.914 423.301 420.619
Pd 413.686 425.264 420.133
Pd 418.358 415.86 421.515
Pd 418.398 414.516 423.912
Pd 416.289 416.359 423.439
Pd 416.356 417.532 420.843
Pd 418.025 419.613 420.283
Pd 418.081 418.195 422.789
Pd 416.053 419.94 421.924
Pd 416.032 421.167 419.547
Pd 417.802 423.168 419.045
Pd 417.928 421.936 421.513
Pd 415.751 423.692 420.681
Pd 415.678 424.887 418.419
Pd 417.388 426.825 417.661
Pd 417.41 425.67 420.108
Pd 415.328 427.352 419.553
Pd 417.27 429.112 418.703
Pd 422.79 412.614 422.673
Pd 422.601 411.486 425.16
Pd 420.415 412.97 424.461
Pd 420.638 414.197 422.181
Pd 422.329 416.235 421.565
Pd 422.386 414.908 424.001
Pd 420.311 416.64 423.224
Pd 420.063 417.832 420.756
Pd 422.016 419.831 420.338
Pd 422.059 418.655 422.789
Pd 420.02 420.114 422.03
Pd 419.971 421.467 419.679
Pd 421.769 423.494 419.097
Pd 421.717 422.41 421.517
Pd 419.745 423.999 420.819
Pd 419.464 425.208 418.558
Pd 421.401 427.136 418.002
Pd 421.574 425.793 420.37
Pd 419.299 427.586 419.64
Pd 419.366 428.704 417.24
Pd 421.238 430.762 416.615
Pd 421.192 429.64 418.989
Pd 419.088 431.153 418.484
Pd 421.009 433.069 417.676
Pd 424.812 409.911 425.69
Pd 424.697 411.212 423.32
Pd 426.512 413.025 422.86
Pd 426.511 411.711 425.256
Pd 424.524 413.369 424.657
Pd 424.571 414.646 422.208
Pd 426.295 416.569 421.495
Pd 426.314 415.392 424.122
Pd 424.022 417.07 423.481
Pd 424.103 418.12 421.054
Pd 426.023 420.251 420.446
Pd 425.971 419.019 422.787
Pd 423.853 420.595 422.215
Pd 423.786 421.829 419.761
Pd 425.686 423.662 419.19
Pd 425.775 422.619 421.627
Pd 423.743 424.105 421.045
Pd 423.564 425.391 418.522
Pd 425.41 427.387 417.911
Pd 425.467 426.166 420.447
Pd 423.405 427.983 419.683
Pd 423.401 429.199 417.255
Pd 425.236 431.159 416.842
Pd 425.232 430.019 419.173
Pd 423.091 431.462 418.466
Pd 423.125 432.74 416.208
Pd 424.813 433.556 418.015
Pd 422.757 435.022 417.547
Pd 428.53 413.611 424.738
Pd 428.242 414.93 422.153
Pd 429.978 416.849 421.765
Pd 430.042 415.575 424.196
Pd 427.989 417.265 423.528
Pd 428.103 418.493 420.972
Pd 429.825 420.594 420.375
Pd 429.705 419.254 422.841
Pd 427.818 421.04 422.145
Pd 427.786 422.237 419.658
Pd 429.667 424.225 419.092
Pd 429.391 423.083 421.561
Pd 427.478 424.602 420.977
Pd 427.562 425.775 418.53
Pd 429.218 427.94 417.856
Pd 429.353 426.686 420.372
Pd 427.263 428.194 419.723
Pd 427.175 429.459 417.271
Pd 428.935 430.22 419.176
Pd 427.052 431.891 418.596
Pd 431.891 417.569 423.492
Pd 431.698 418.814 421.199
Pd 433.628 420.601 420.473
Pd 433.597 419.592 422.944
Pd 431.477 421.282 422.229
Pd 431.656 422.462 419.745
Pd 433.32 424.347 419.117
Pd 433.359 423.212 421.552
Pd 431.393 424.942 420.764
Pd 431.386 426.234 418.455
Pd 433.121 426.946 420.337
Pd 431.098 428.616 419.791
Pd 435.405 421.457 422.392
Pd 435.285 422.557 419.897
Pd 437.004 423.468 421.741
Pd 435.166 425.129 420.808
Pd 406.496 422.158 425.004
Pd 410.556 420.029 423.643
Pd 410.574 418.878 426.236
Pd 408.475 420.39 425.367
Pd 408.467 421.768 423.08
Pd 410.021 423.69 422.537
Pd 409.943 422.44 424.875
Pd 407.957 424.184 424.4
Pd 409.716 426.059 423.876
Pd 414.324 416.628 425.126
Pd 414.366 415.557 427.555
Pd 412.429 417.223 426.894
Pd 412.384 418.291 424.391
Pd 414.043 420.32 423.808
Pd 414.232 419.03 426.173
Pd 412.128 420.804 425.654
Pd 412.053 422.008 423.056
Pd 413.655 424.099 422.494
Pd 413.891 422.995 425.025
Pd 411.756 424.435 424.474
Pd 411.719 425.823 421.998
Pd 413.512 427.76 421.508
Pd 413.535 426.425 423.77
Pd 411.429 428.244 423.078
Pd 413.216 430.178 422.595
Pd 418.538 413.327 426.361
Pd 418.637 412.36 428.745
Pd 416.332 413.793 428.029
Pd 416.423 415.021 425.753
Pd 418.238 417.06 425.215
Pd 418.257 415.735 427.528
Pd 416.343 417.327 426.937
Pd 416.22 418.727 424.484
Pd 417.887 420.639 423.857
Pd 417.999 419.569 426.376
Pd 415.979 421.334 425.732
Pd 415.86 422.369 423.31
Pd 417.646 424.464 422.531
Pd 417.789 423.234 425.121
Pd 415.675 424.959 424.382
Pd 415.588 426.081 421.965
Pd 417.357 428.069 421.446
Pd 417.583 426.857 423.953
Pd 415.321 428.386 423.387
Pd 415.199 429.644 420.687
Pd 417.054 431.54 420.198
Pd 417.035 430.348 422.782
Pd 415.112 432.121 421.895
Pd 416.743 434.116 421.433
Pd 422.895 410.305 427.496
Pd 422.509 409.187 429.855
Pd 420.629 410.679 429.145
Pd 420.539 411.915 426.864
Pd 422.466 413.837 426.362
Pd 422.454 412.589 428.715
Pd 420.316 414.299 428.175
Pd 420.273 415.367 425.651
Pd 422.092 417.288 425.237
Pd 422.124 416.217 427.67
Pd 420.179 417.902 426.898
Pd 420.08 419.15 424.546
Pd 421.819 421.131 424.119
Pd 421.806 420.088 426.446
Pd 419.665 421.601 425.758
Pd 419.791 422.672 423.26
Pd 421.566 424.762 422.809
Pd 421.433 423.507 425.123
Pd 419.468 425.227 424.479
Pd 419.423 426.308 422.047
Pd 421.234 428.259 421.445
Pd 421.271 427.192 423.969
Pd 419.227 428.785 423.271
Pd 419.047 429.968 420.785
Pd 420.806 432.145 420.162
Pd 420.936 430.83 422.661
Pd 418.911 432.428 422.111
Pd 418.766 433.593 419.708
Pd 420.602 435.467 419.105
Pd 420.593 434.446 421.569
Pd 418.559 435.977 420.951
Pd 420.333 437.94 420.473
Pd 424.622 407.706 430.576
Pd 424.789 408.768 428.187
Pd 426.487 410.594 427.685
Pd 426.569 409.328 430.099
Pd 424.542 410.971 429.587
Pd 424.463 412.401 427.126
Pd 426.45 414.157 426.509
Pd 426.327 412.871 429.065
Pd 424.38 414.612 428.35
Pd 424.276 415.749 425.92
Pd 425.977 417.725 425.344
Pd 426.182 416.554 427.748
Pd 424.042 418.139 427.238
Pd 423.859 419.472 424.796
Pd 425.773 421.254 424.208
Pd 425.744 420.265 426.705
Pd 423.657 422.035 425.943
Pd 423.696 423.056 423.527
Pd 425.465 424.996 422.825
Pd 425.581 423.762 425.432
Pd 423.403 425.564 424.586
Pd 423.412 426.646 422.061
Pd 425.282 428.69 421.475
Pd 425.262 427.479 424.055
Pd 423.06 429.155 423.225
Pd 422.933 430.344 420.841
Pd 424.969 432.368 420.334
Pd 424.895 431.159 422.777
Pd 422.833 432.883 422.197
Pd 422.743 433.917 419.737
Pd 424.622 436.119 419.201
Pd 424.693 434.825 421.555
Pd 422.467 436.298 421.048
Pd 422.321 437.443 418.48
Pd 423.945 438.23 420.299
Pd 421.967 439.707 419.745
Pd 428.3 411.203 429.554
Pd 428.197 412.31 427.039
Pd 430.248 414.433 426.699
Pd 430.207 413.065 429.081
Pd 428.249 414.706 428.433
Pd 428.138 416.094 425.904
Pd 429.965 417.894 425.385
Pd 430.082 416.653 427.857
Pd 427.785 418.544 427.127
Pd 427.806 419.759 424.787
Pd 429.585 421.773 424.076
Pd 429.741 420.418 426.473
Pd 427.633 422.211 425.961
Pd 427.549 423.49 423.467
Pd 429.467 425.359 422.718
Pd 429.306 424.21 425.173
Pd 427.361 425.917 424.626
Pd 427.377 427.026 422.183
Pd 429.006 428.978 421.475
Pd 429.15 427.82 424.048
Pd 426.929 429.372 423.497
Pd 426.962 430.745 421.112
Pd 428.755 432.732 420.472
Pd 428.788 431.443 422.779
Pd 426.871 433.092 422.174
Pd 426.791 434.216 419.917
Pd 428.602 435.286 421.744
Pd 426.485 436.67 421.071
Pd 432.012 415.021 428.607
Pd 432.026 416.287 425.942
Pd 433.69 418.322 425.386
Pd 433.7 417.028 427.782
Pd 431.699 418.791 427.238
Pd 431.796 420.019 424.685
Pd 433.456 422.086 424.179
Pd 433.503 420.812 426.499
Pd 431.511 422.445 425.805
Pd 431.421 423.859 423.387
Pd 433.203 425.698 422.74
Pd 433.169 424.538 425.233
Pd 431.168 426.175 424.806
Pd 431.137 427.456 422.127
Pd 432.951 429.539 421.637
Pd 433.09 428.198 423.802
Pd 430.945 429.838 423.378
Pd 430.829 430.961 420.939
Pd 432.554 431.981 422.727
Pd 430.441 433.532 422.275
Pd 435.605 419.075 427.489
Pd 435.423 420.267 424.838
Pd 437.243 422.258 424.109
Pd 437.228 421.014 426.61
Pd 435.237 422.819 426.034
Pd 435.152 423.875 423.456
Pd 436.95 425.987 422.866
Pd 436.929 424.616 425.255
Pd 435.019 426.354 424.66
Pd 434.967 427.638 422.042
Pd 436.44 428.338 423.993
Pd 434.671 430.376 423.404
Pd 439.083 422.958 426.106
Pd 438.886 424.302 423.406
Pd 440.657 424.804 425.334
Pd 438.66 426.653 424.669
Pd 406.676 420.842 427.474
Pd 404.846 422.539 426.797
Pd 406.419 424.601 426.377
Pd 406.384 423.411 428.753
Pd 410.571 417.728 428.827
Pd 408.586 419.213 427.984
Pd 410.181 421.143 427.473
Pd 410.277 420.098 430.078
Pd 408.377 421.743 429.602
Pd 408.221 422.729 426.915
Pd 409.707 424.91 426.332
Pd 409.98 423.767 428.749
Pd 407.862 425.668 428.148
Pd 407.851 426.663 425.591
Pd 409.58 428.685 425.136
Pd 409.702 427.399 427.482
Pd 414.525 414.465 429.87
Pd 412.534 416.101 429.254
Pd 414.215 417.958 428.767
Pd 414.34 416.7 431.245
Pd 412.303 418.463 430.739
Pd 412.255 419.645 428.205
Pd 413.992 421.654 427.55
Pd 414.185 420.409 430.027
Pd 411.972 422.129 429.323
Pd 411.782 423.284 426.954
Pd 413.611 425.33 426.148
Pd 413.776 424.129 428.641
Pd 411.642 425.709 428.234
Pd 411.543 426.835 425.541
Pd 413.356 428.77 424.972
Pd 413.257 427.842 427.488
Pd 411.363 429.496 426.936
Pd 411.272 430.573 424.242
Pd 413.245 432.533 423.732
Pd 413.255 431.221 426.134
Pd 418.756 411.077 431.161
Pd 416.626 412.766 430.495
Pd 418.338 414.669 429.959
Pd 418.442 413.463 432.373
Pd 416.242 415.033 431.726
Pd 416.153 416.277 429.486
Pd 418.076 418.446 428.809
Pd 418.028 416.98 431.221
Pd 416.183 418.744 430.575
Pd 416.07 420.062 428.115
Pd 417.865 422.002 427.664
Pd 418.014 420.787 430.141
Pd 415.811 422.459 429.473
Pd 415.762 423.651 427.024
Pd 417.411 425.626 426.359
Pd 417.424 424.619 428.848
Pd 415.382 426.115 428.164
Pd 415.392 427.263 425.692
Pd 417.22 429.294 425.153
Pd 417.374 428.205 427.691
Pd 415.178 429.801 426.837
Pd 415.033 430.85 424.3
Pd 416.702 433.006 423.767
Pd 416.826 431.718 426.305
Pd 414.833 433.439 425.71
Pd 414.749 434.545 423.185
Pd 416.468 436.374 422.704
Pd 416.485 435.192 425.183
Pd 422.68 408.066 432.419
Pd 420.648 409.568 431.918
Pd 422.428 411.349 431.387
Pd 422.554 410.253 433.904
Pd 420.324 411.912 433.115
Pd 420.588 412.981 430.705
Pd 422.196 414.863 430.138
Pd 422.295 413.749 432.65
Pd 420.24 415.443 431.949
Pd 420.129 416.648 429.39
Pd 421.94 418.587 428.923
Pd 422.128 417.457 431.319
Pd 419.943 419.084 430.701
Pd 419.883 420.368 428.299
Pd 421.585 422.498 427.679
Pd 421.732 421.077 430.032
Pd 419.604 422.919 429.437
Pd 419.532 423.973 427.052
Pd 421.507 425.918 426.419
Pd 421.417 424.75 428.864
Pd 419.432 426.507 428.21
Pd 419.233 427.575 425.887
Pd 420.972 429.687 425.27
Pd 421.337 428.336 427.579
Pd 419.175 430.031 426.996
Pd 419.058 431.349 424.62
Pd 420.696 433.144 423.837
Pd 420.832 432.057 426.541
Pd 418.62 433.746 425.91
Pd 418.499 434.798 423.468
Pd 420.256 436.652 422.979
Pd 420.442 435.595 425.309
Pd 418.341 437.174 424.738
Pd 418.303 438.218 422.275
Pd 420.023 440.224 421.669
Pd 420.17 439.034 424.166
Pd 424.682 406.487 432.882
Pd 426.615 408.238 432.573
Pd 424.519 408.584 434.271
Pd 424.522 409.758 431.95
Pd 426.564 411.54 431.481
Pd 426.371 410.664 433.858
Pd 424.233 412.227 433.246
Pd 424.306 413.406 430.809
Pd 426.192 415.212 430.367
Pd 426.3 413.878 432.803
Pd 424.154 415.746 432.167
Pd 424.075 416.836 429.639
Pd 425.84 419.009 429.052
Pd 426.049 417.678 431.438
Pd 423.951 419.412 430.837
Pd 423.653 420.611 428.29
Pd 425.632 422.62 427.771
Pd 425.707 421.37 430.152
Pd 423.733 423.02 429.552
Pd 423.509 424.348 427.253
Pd 425.336 426.289 426.472
Pd 425.344 424.95 429.086
Pd 423.358 426.667 428.298
Pd 423.248 427.917 425.649
Pd 424.939 429.901 425.313
Pd 425.145 428.713 427.727
Pd 422.906 430.413 427.108
Pd 422.74 431.545 424.536
Pd 424.645 433.663 424.029
Pd 424.638 432.321 426.369
Pd 422.59 434.007 425.907
Pd 422.522 435.116 423.515
Pd 424.263 437.023 422.847
Pd 424.481 436.051 425.344
Pd 422.361 437.503 424.834
Pd 422.047 438.551 422.294
Pd 423.838 440.448 421.715
Pd 424.039 439.382 424.019
Pd 422.049 440.9 423.597
Pd 421.867 441.974 421.276
Pd 428.479 409.975 431.986
Pd 430.276 411.871 431.428
Pd 428.32 412.28 433.501
Pd 428.273 413.397 430.992
Pd 430.089 415.52 430.332
Pd 430.154 414.123 432.803
Pd 428.106 415.953 432.112
Pd 427.963 417.2 429.617
Pd 429.78 419.17 429.003
Pd 429.826 418.015 431.531
Pd 427.872 419.705 430.785
Pd 427.747 420.817 428.389
Pd 429.554 422.779 427.662
Pd 429.522 421.602 430.166
Pd 427.687 423.343 429.54
Pd 427.481 424.67 427.12
Pd 429.127 426.582 426.51
Pd 429.392 425.257 428.879
Pd 427.326 426.983 428.4
Pd 427.095 428.306 425.888
Pd 428.827 430.347 425.289
Pd 429.035 429.147 427.75
Pd 426.829 430.76 427.158
Pd 426.838 431.851 424.755
Pd 428.602 433.775 424.295
Pd 428.614 432.765 426.705
Pd 426.582 434.334 425.887
Pd 426.519 435.586 423.484
Pd 428.292 437.574 422.956
Pd 428.378 436.526 425.296
Pd 426.208 437.894 424.664
Pd 425.904 438.905 422.135
Pd 432.179 413.901 430.988
Pd 433.817 415.919 430.29
Pd 431.887 416.19 432.214
Pd 431.823 417.528 429.608
Pd 433.715 419.413 429.11
Pd 433.858 418.009 431.552
Pd 431.654 419.81 430.941
Pd 431.628 421.141 428.418
Pd 433.177 423.182 427.685
Pd 433.396 421.932 430.224
Pd 431.433 423.628 429.763
Pd 431.23 424.913 427.003
Pd 433.078 427 426.509
Pd 432.983 425.566 429.041
Pd 431.1 427.341 428.5
Pd 430.834 428.478 425.811
Pd 432.668 430.519 425.189
Pd 432.83 429.353 427.833
Pd 430.857 431.024 427.073
Pd 430.761 432.268 424.714
Pd 432.273 434.245 424.085
Pd 432.496 433.113 426.511
Pd 430.345 434.844 425.99
Pd 430.155 435.896 423.483
Pd 435.602 417.667 429.609
Pd 437.242 419.874 429.217
Pd 435.451 420.179 430.9
Pd 435.311 421.418 428.497
Pd 437.112 423.589 427.98
Pd 437.241 422.344 430.496
Pd 435.112 423.938 429.675
Pd 434.939 425.209 427.296
Pd 436.747 427.181 426.71
Pd 436.928 426.03 429.128
Pd 434.844 427.766 428.555
Pd 434.693 428.768 425.964
Pd 436.321 430.694 425.315
Pd 436.555 429.667 427.853
Pd 434.333 431.226 427.002
Pd 434.301 432.475 424.652
Pd 438.953 421.826 428.563
Pd 440.541 423.87 427.976
Pd 438.851 424.421 429.734
Pd 438.739 425.501 427.146
Pd 440.303 427.579 426.649
Pd 440.43 426.36 428.988
Pd 438.487 427.965 428.472
Pd 438.337 429.048 425.92
Pd 442.088 425.674 427.168
Pd 410.3 422.624 431.229
Pd 408.083 424.242 430.458
Pd 409.73 426.22 430.029
Pd 409.834 424.956 432.302
Pd 414.174 419.254 432.353
Pd 412.008 420.845 431.873
Pd 413.865 422.937 431.223
Pd 413.915 421.632 433.67
Pd 411.919 423.465 433.146
Pd 411.856 424.529 430.613
Pd 413.456 426.647 429.867
Pd 413.635 425.552 432.475
Pd 411.627 426.925 431.719
Pd 411.324 428.235 429.338
Pd 413.153 430.289 428.759
Pd 413.331 428.987 430.962
Pd 418.143 415.993 433.708
Pd 416.094 417.497 433.178
Pd 417.787 419.488 432.434
Pd 417.925 418.452 434.85
Pd 416.051 420.094 434.346
Pd 415.835 421.276 431.882
Pd 417.71 423.219 431.342
Pd 417.806 422.006 433.756
Pd 415.652 423.803 433.005
Pd 415.524 425.03 430.561
Pd 417.472 427.004 430.066
Pd 417.552 425.68 432.337
Pd 415.497 427.387 431.791
Pd 415.315 428.534 429.281
Pd 416.855 430.556 428.775
Pd 416.986 429.345 431.213
Pd 414.908 431.027 430.638
Pd 414.78 432.161 428.205
Pd 416.646 434.068 427.616
Pd 416.869 432.911 429.955
Pd 422.37 412.611 435.203
Pd 420.31 414.302 434.322
Pd 422.002 416.204 433.673
Pd 422.255 415.091 436.063
Pd 420.112 416.702 435.563
Pd 420.053 417.907 433
Pd 421.89 419.83 432.634
Pd 421.992 418.558 435.044
Pd 419.984 420.306 434.528
Pd 419.78 421.468 431.972
Pd 421.491 423.499 431.224
Pd 421.497 422.249 433.838
Pd 419.675 423.998 433.087
Pd 419.473 425.305 430.66
Pd 421.398 427.152 430.039
Pd 421.436 426.085 432.507
Pd 419.321 427.74 431.906
Pd 419.249 428.97 429.485
Pd 421.019 430.564 428.926
Pd 421.153 429.628 431.389
Pd 418.976 431.228 430.764
Pd 418.755 432.469 428.251
Pd 420.652 434.579 427.769
Pd 420.758 433.199 430.135
Pd 418.804 434.857 429.629
Pd 418.301 436.043 427.207
Pd 420.325 437.897 426.539
Pd 420.383 436.874 429.044
Pd 424.369 411.047 435.476
Pd 426.52 412.763 435.238
Pd 424.318 413.397 436.874
Pd 424.338 414.439 434.578
Pd 426.24 416.463 434.018
Pd 426.23 415.219 436.41
Pd 424.104 416.952 435.53
Pd 424.07 418.024 433.116
Pd 425.722 420.243 432.684
Pd 425.706 418.921 435.094
Pd 423.683 420.693 434.48
Pd 423.697 421.864 432.094
Pd 425.526 423.843 431.556
Pd 425.459 422.734 433.994
Pd 423.428 424.377 433.318
Pd 423.427 425.338 430.847
Pd 425.128 427.331 430.125
Pd 425.373 426.217 432.632
Pd 423.218 427.914 431.941
Pd 423.176 429.097 429.584
Pd 424.89 431.144 428.87
Pd 424.937 429.946 431.348
Pd 422.864 431.577 430.676
Pd 422.721 432.688 428.265
Pd 424.527 434.694 427.647
Pd 424.534 433.36 430.113
Pd 422.587 435.242 429.665
Pd 422.545 436.41 427.227
Pd 424.282 438.516 426.543
Pd 424.285 437.198 428.904
Pd 422.196 438.666 428.267
Pd 422.214 439.933 425.997
Pd 428.065 414.801 434.603
Pd 429.897 416.807 433.817
Pd 428.028 417.308 435.844
Pd 427.912 418.456 433.274
Pd 429.513 420.43 432.786
Pd 429.757 419.384 435.065
Pd 427.635 420.804 434.512
Pd 427.494 422.17 432.078
Pd 429.395 424.116 431.486
Pd 429.414 422.796 433.972
Pd 427.376 424.613 433.279
Pd 427.355 425.771 430.832
Pd 429.252 427.792 430.284
Pd 429.188 426.445 432.613
Pd 427.062 428.329 432.1
Pd 426.997 429.396 429.559
Pd 428.952 431.608 428.954
Pd 428.889 430.34 431.328
Pd 426.696 431.948 430.85
Pd 426.623 433.109 428.382
Pd 428.396 435.098 427.881
Pd 428.494 433.84 430.227
Pd 426.372 435.663 429.488
Pd 426.459 436.709 427.123
Pd 431.841 418.728 433.444
Pd 433.488 420.731 432.804
Pd 431.456 421.113 434.603
Pd 431.375 422.3 432.202
Pd 433.142 424.315 431.517
Pd 433.258 423.11 434.088
Pd 431.209 424.805 433.417
Pd 431.199 426.04 430.884
Pd 432.953 428.115 430.343
Pd 433.031 426.851 432.69
Pd 430.941 428.653 432.073
Pd 430.835 429.842 429.635
Pd 432.421 431.824 429.008
Pd 432.707 430.542 431.498
Pd 430.639 432.176 431.054
Pd 430.755 433.721 428.34
Pd 435.131 422.769 432.259
Pd 436.818 424.67 431.45
Pd 434.901 425.079 433.467
Pd 434.894 426.512 430.871
Pd 436.645 428.625 430.278
Pd 436.661 427.042 432.476
Pd 434.744 428.944 432.106
Pd 434.467 430.24 429.501
Pd 438.614 426.867 430.934
Pd 413.895 424.24 434.762
Pd 411.765 425.94 434.124
Pd 413.429 427.966 433.641
Pd 413.632 426.614 436.039
Pd 417.959 420.734 436.199
Pd 415.792 422.295 435.332
Pd 417.513 424.274 434.95
Pd 417.627 422.968 437.569
Pd 415.64 424.885 436.637
Pd 415.643 426.22 434.203
Pd 417.251 428.191 433.711
Pd 417.402 426.857 436.123
Pd 415.33 428.604 435.608
Pd 415.12 429.782 433.134
Pd 416.839 431.646 432.351
Pd 416.983 430.567 434.947
Pd 421.966 417.472 437.409
Pd 419.938 419.125 436.953
Pd 421.659 421.147 436.304
Pd 421.884 420.006 438.658
Pd 419.797 421.521 438.37
Pd 419.624 422.788 435.61
Pd 421.41 424.686 435.028
Pd 421.446 423.522 437.505
Pd 419.299 425.164 436.855
Pd 419.204 426.39 434.316
Pd 420.99 428.455 433.766
Pd 421.265 427.229 436.211
Pd 419.06 428.875 435.574
Pd 418.928 430.127 433.225
Pd 420.858 432.012 432.531
Pd 420.861 430.963 435.042
Pd 418.86 432.498 434.329
Pd 418.692 433.622 432.035
Pd 420.608 435.618 431.484
Pd 420.57 434.341 433.78
Pd 424.084 416.075 437.918
Pd 425.947 417.724 437.541
Pd 423.883 418.504 439.332
Pd 423.767 419.258 436.769
Pd 425.682 421.391 436.301
Pd 425.567 420.148 438.733
Pd 423.606 421.997 438.073
Pd 423.483 423.189 435.644
Pd 425.359 425.232 435.185
Pd 425.389 423.849 437.518
Pd 423.249 425.629 436.757
Pd 423.275 426.733 434.409
Pd 425.037 428.82 433.859
Pd 425.106 427.558 436.142
Pd 422.927 429.239 435.674
Pd 422.955 430.318 433.246
Pd 424.792 432.412 432.564
Pd 424.825 431.175 434.921
Pd 422.637 432.825 434.477
Pd 422.601 433.928 431.994
Pd 424.472 435.938 431.51
Pd 424.427 434.755 433.852
Pd 422.339 436.333 433.173
Pd 422.448 437.553 430.795
Pd 427.682 419.785 436.978
Pd 429.395 421.612 436.41
Pd 427.49 422.108 438.183
Pd 427.376 423.441 435.759
Pd 429.159 425.248 435.069
Pd 429.397 424.15 437.498
Pd 427.317 425.862 437.054
Pd 427.125 427.09 434.46
Pd 429.075 428.986 433.867
Pd 428.994 427.756 436.353
Pd 427.124 429.591 435.629
Pd 426.851 430.825 433.259
Pd 428.557 432.656 432.626
Pd 428.904 431.448 434.996
Pd 426.779 433.206 434.467
Pd 426.577 434.306 431.928
Pd 431.272 423.634 435.922
Pd 433.067 425.687 435.191
Pd 431.047 426.088 436.939
Pd 431.048 427.272 434.568
Pd 432.767 429.113 434.028
Pd 432.926 428.023 436.364
Pd 430.894 429.719 435.691
Pd 430.884 430.976 433.373
Pd 434.82 427.577 434.529
Pd 417.374 425.569 438.516
Pd 415.537 427.354 437.872
Pd 417.214 429.345 437.412
Pd 417.104 428.106 439.835
Pd 421.647 422.393 439.946
Pd 419.56 424.003 439.249
Pd 421.319 425.938 438.702
Pd 421.714 424.795 441.106
Pd 419.293 426.591 440.265
Pd 419.225 427.687 437.966
Pd 420.979 429.79 437.415
Pd 421.172 428.474 439.85
Pd 418.898 430.188 439.29
Pd 418.847 431.364 436.859
Pd 420.616 433.273 436.289
Pd 420.86 432.076 438.65
Pd 423.616 420.811 440.588
Pd 425.541 422.389 439.986
Pd 423.565 423.007 441.648
Pd 423.491 424.397 439.182
Pd 425.269 426.374 438.707
Pd 425.322 425.06 440.897
Pd 423.41 426.824 440.473
Pd 423.184 428.132 438.032
Pd 424.948 430.065 437.371
Pd 425.033 428.906 439.8
Pd 422.867 430.584 439.156
Pd 422.833 431.717 436.681
Pd 424.702 433.543 436.098
Pd 424.899 432.412 438.399
Pd 422.804 434.128 437.839
Pd 422.481 435.233 435.571
Pd 427.236 424.615 439.288
Pd 429.226 426.445 438.85
Pd 426.999 426.974 440.424
Pd 426.958 428.222 438.012
Pd 429.065 430.318 437.45
Pd 428.786 428.792 439.628
Pd 426.954 430.78 439.092
Pd 426.938 432.07 436.878
Pd 430.869 428.439 438.082
Pd 421.155 427.259 442.13
Pd 419.215 428.844 441.417
Pd 420.824 430.859 440.887
Pd 421.119 429.714 443.253
Pd 423.381 425.716 442.798
Pd 425.256 427.499 442.26
Pd 423.181 428.163 443.803
Pd 423.035 429.253 441.534
Pd 424.962 431.248 440.894
Pd 425.085 429.865 443.089
Pd 422.932 431.505 442.592
Pd 422.836 432.877 440.095
Pd 427.002 429.464 441.435
Pd 423.19 430.476 444.829
