670

Pd 425.566 417.803 408.932
Pd 424.488 416.648 411.258
Pd 423.141 418.735 409.906
Pd 425.422 420.156 409.484
Pd 426.746 418.188 411.141
Pd 420.779 419.815 410.675
Pd 420.139 418.719 413.141
Pd 418.702 420.826 411.885
Pd 420.874 422.291 411.513
Pd 423.719 415.741 413.555
Pd 423.124 414.85 416.023
Pd 421.531 416.797 414.623
Pd 422.232 417.7 412.021
Pd 424.66 419.09 411.953
Pd 423.765 418.158 414.303
Pd 422.381 420.259 412.823
Pd 423.129 421.348 410.588
Pd 425.545 422.537 410.411
Pd 424.725 421.745 412.728
Pd 423.177 423.782 411.292
Pd 425.39 425.19 411.229
Pd 425.259 416.441 415.652
Pd 426.105 417.023 413.397
Pd 428.295 418.848 413.164
Pd 427.536 417.819 415.545
Pd 426.146 419.636 414.122
Pd 426.869 420.645 411.668
Pd 428.39 421.246 413.841
Pd 426.918 423.377 412.441
Pd 429.955 419.277 415.242
Pd 416.54 421.643 413.099
Pd 415.88 420.923 415.574
Pd 414.296 422.623 414.417
Pd 416.561 424.143 414.055
Pd 419.375 418.073 415.734
Pd 418.607 416.858 418.128
Pd 417.237 418.874 417.051
Pd 417.993 419.847 414.307
Pd 420.287 421.152 414.127
Pd 419.42 420.5 416.733
Pd 418.023 422.315 415.334
Pd 418.781 423.244 412.929
Pd 420.99 424.85 412.478
Pd 420.33 423.75 415.016
Pd 418.849 425.805 413.697
Pd 421.042 427.414 413.429
Pd 422.319 413.819 418.218
Pd 421.641 413.202 420.633
Pd 420.151 415.101 419.384
Pd 420.778 415.772 416.916
Pd 423.006 417.391 416.813
Pd 422.559 416.307 419.087
Pd 420.92 418.398 417.85
Pd 421.579 419.421 415.49
Pd 423.921 420.764 415.147
Pd 423.172 419.891 417.687
Pd 421.765 421.858 416.35
Pd 422.432 422.757 413.816
Pd 424.623 424.217 413.551
Pd 423.848 423.48 415.923
Pd 422.466 425.513 414.628
Pd 423.337 426.482 412.302
Pd 425.351 427.986 411.882
Pd 424.648 427.11 414.399
Pd 423.164 429.073 413.046
Pd 425.402 430.578 412.847
Pd 423.857 414.632 420.416
Pd 424.787 415.43 418.003
Pd 427.019 416.991 417.969
Pd 426.078 416.122 420.199
Pd 424.613 417.878 418.95
Pd 425.308 418.842 416.519
Pd 427.689 420.36 416.174
Pd 426.898 419.552 418.608
Pd 425.432 421.465 417.322
Pd 426.122 422.404 414.911
Pd 428.475 423.856 414.532
Pd 427.725 422.939 416.94
Pd 426.081 424.928 415.798
Pd 426.869 425.89 413.303
Pd 428.534 426.409 415.32
Pd 426.881 428.516 414.002
Pd 428.471 417.661 420.085
Pd 429.227 418.523 417.691
Pd 431.48 420.15 417.272
Pd 430.752 419.457 419.666
Pd 429.225 421.115 418.237
Pd 429.912 421.913 415.894
Pd 431.468 422.59 418.157
Pd 430.058 424.468 416.665
Pd 433.015 420.921 419.336
Pd 412.245 423.678 415.44
Pd 411.49 422.763 418.074
Pd 410.135 424.719 416.839
Pd 412.044 426.174 416.376
Pd 414.999 419.886 418.158
Pd 414.444 419.037 420.572
Pd 412.899 420.858 419.308
Pd 413.577 421.84 416.916
Pd 415.803 423.43 416.417
Pd 415.074 422.581 418.984
Pd 413.571 424.348 417.621
Pd 414.566 425.319 415.14
Pd 416.622 426.912 414.821
Pd 415.744 426.014 417.452
Pd 414.617 427.862 416.069
Pd 416.661 429.539 415.811
Pd 417.891 415.902 420.511
Pd 417.178 415.048 423.032
Pd 415.733 416.961 421.757
Pd 416.341 417.903 419.315
Pd 418.674 419.432 419.257
Pd 417.805 418.62 421.495
Pd 416.377 420.597 420.281
Pd 417.163 421.332 417.864
Pd 419.522 422.959 417.52
Pd 418.633 422.097 420.021
Pd 417.331 424.041 418.708
Pd 417.947 424.966 416.09
Pd 420.298 426.454 415.862
Pd 419.491 425.631 418.374
Pd 417.903 427.573 417.232
Pd 418.999 428.459 414.586
Pd 421.137 430.012 414.443
Pd 420.363 429.122 416.96
Pd 418.763 430.865 415.499
Pd 421.033 432.491 415.299
Pd 420.992 412.206 423.182
Pd 420.17 411.464 425.656
Pd 418.632 413.09 424.471
Pd 419.426 414.011 421.948
Pd 421.555 415.559 421.488
Pd 420.773 414.627 424.135
Pd 419.358 416.475 422.738
Pd 420.126 417.581 420.425
Pd 422.389 419.094 420.17
Pd 421.689 418.121 422.655
Pd 420.17 420.131 421.336
Pd 420.895 420.963 418.933
Pd 423.23 422.416 418.327
Pd 422.46 421.786 421.009
Pd 421.062 423.58 419.611
Pd 421.774 424.602 417.257
Pd 423.836 426.153 416.863
Pd 423.442 425.076 419.336
Pd 421.629 427.267 418.213
Pd 422.567 428.139 415.632
Pd 424.76 429.594 415.312
Pd 424.148 428.659 417.807
Pd 422.667 430.818 416.549
Pd 423.264 431.509 414.112
Pd 425.407 432.955 413.965
Pd 424.958 432.166 416.245
Pd 423.144 433.918 415.06
Pd 425.488 435.349 414.911
Pd 422.348 412.837 425.302
Pd 423.105 413.75 422.814
Pd 425.271 415.353 422.619
Pd 424.572 414.252 425.127
Pd 422.961 416.096 423.852
Pd 423.772 417.108 421.455
Pd 426.299 418.682 421.048
Pd 425.542 417.798 423.608
Pd 423.865 419.698 422.238
Pd 424.746 420.547 419.845
Pd 426.929 422.062 419.434
Pd 426.166 421.073 422.048
Pd 424.664 423.059 420.661
Pd 425.544 424 418.145
Pd 427.687 425.576 417.813
Pd 426.871 424.799 420.247
Pd 425.471 426.695 418.996
Pd 426.271 427.663 416.499
Pd 428.465 428.865 416.224
Pd 427.76 428.179 418.742
Pd 426.383 430.178 417.439
Pd 426.979 430.984 414.958
Pd 428.75 431.579 417.007
Pd 427.074 433.551 415.988
Pd 426.814 415.883 424.842
Pd 427.653 416.609 422.302
Pd 429.95 418.184 422.133
Pd 428.998 417.21 424.523
Pd 427.736 419.125 423.253
Pd 428.505 420.213 420.754
Pd 430.729 421.929 420.464
Pd 429.911 420.852 422.808
Pd 428.385 422.701 421.481
Pd 429.303 423.724 419.1
Pd 431.428 425.341 418.99
Pd 430.605 424.542 421.253
Pd 429.099 426.234 420.103
Pd 429.909 427.111 417.746
Pd 431.269 427.769 419.901
Pd 430.151 429.699 418.455
Pd 431.377 418.917 424.222
Pd 432.223 420.02 421.719
Pd 434.332 421.483 421.655
Pd 433.523 420.539 423.989
Pd 432.031 422.506 422.77
Pd 432.89 423.42 420.336
Pd 434.38 424.061 422.486
Pd 433.003 425.76 421.123
Pd 435.69 422.113 423.759
Pd 408.189 425.929 417.971
Pd 407.186 424.791 420.566
Pd 406.33 427.082 419.308
Pd 408.158 428.657 418.888
Pd 410.8 422.08 420.5
Pd 410.016 420.948 422.828
Pd 408.589 422.885 421.775
Pd 409.152 423.818 419.228
Pd 411.346 425.336 418.919
Pd 410.565 424.402 421.393
Pd 409.223 426.53 420.277
Pd 410.155 427.524 417.635
Pd 412.5 428.807 417.207
Pd 411.558 427.905 419.913
Pd 410.31 429.904 418.521
Pd 412.374 431.317 418.312
Pd 413.655 418.123 423.036
Pd 412.838 417.221 425.468
Pd 411.533 419.138 424.114
Pd 412.216 420.08 421.733
Pd 414.306 421.756 421.508
Pd 413.533 420.741 423.941
Pd 411.994 422.723 422.793
Pd 413.004 423.618 420.171
Pd 415.117 425.139 419.898
Pd 414.268 424.225 422.605
Pd 412.813 426.087 421.14
Pd 413.515 426.859 418.5
Pd 415.829 428.739 418.359
Pd 415.062 427.701 420.766
Pd 413.573 429.365 419.407
Pd 414.495 430.559 416.887
Pd 416.583 432.041 416.634
Pd 415.964 431.273 419.265
Pd 414.463 433.096 418.086
Pd 416.603 434.571 417.618
Pd 416.448 414.456 425.615
Pd 415.737 413.614 428.022
Pd 414.29 415.265 426.774
Pd 415.004 416.332 424.23
Pd 417.207 417.707 423.927
Pd 416.433 416.899 426.641
Pd 415.053 418.845 425.287
Pd 415.727 419.672 422.733
Pd 417.893 421.317 422.498
Pd 417.327 420.238 424.941
Pd 415.651 422.31 423.83
Pd 416.408 423.232 421.26
Pd 418.672 424.741 420.834
Pd 417.941 423.922 423.301
Pd 416.409 425.858 422.137
Pd 417.338 426.729 419.652
Pd 419.373 428.284 419.468
Pd 418.66 427.447 421.886
Pd 417.166 429.331 420.583
Pd 418.06 430.184 418.065
Pd 420.339 431.59 417.777
Pd 419.549 430.788 420.338
Pd 418.071 432.759 418.94
Pd 418.75 433.596 416.424
Pd 420.918 435.225 416.165
Pd 420.26 434.339 418.668
Pd 418.764 436.148 417.473
Pd 420.923 437.502 417.184
Pd 419.531 410.622 427.987
Pd 418.753 410 430.31
Pd 417.118 411.683 429.384
Pd 418.008 412.301 426.939
Pd 420.076 413.907 426.692
Pd 419.397 413.07 428.988
Pd 417.792 414.993 428.001
Pd 418.52 415.797 425.213
Pd 420.847 417.286 425.055
Pd 420.158 416.39 427.579
Pd 418.774 418.388 426.288
Pd 419.478 419.131 423.652
Pd 421.684 420.788 423.539
Pd 420.898 419.756 426.11
Pd 419.298 421.752 424.588
Pd 420.139 422.779 422.142
Pd 422.483 424.386 421.842
Pd 421.731 423.392 424.375
Pd 420.343 425.347 423.06
Pd 421.102 426.119 420.526
Pd 423.24 427.732 420.25
Pd 422.64 426.9 422.73
Pd 421.054 428.88 421.52
Pd 421.777 429.693 419.089
Pd 423.96 431.268 418.673
Pd 423.354 430.315 421.231
Pd 421.8 432.281 419.972
Pd 422.448 433.333 417.44
Pd 424.79 434.536 417.28
Pd 423.883 433.841 419.838
Pd 422.506 435.708 418.515
Pd 423.335 436.319 415.923
Pd 425.589 437.723 415.985
Pd 424.844 436.961 418.399
Pd 423.386 438.716 417.198
Pd 425.668 440.094 417.067
Pd 420.878 411.304 430.321
Pd 421.639 412.048 427.835
Pd 423.845 413.345 427.612
Pd 423.042 412.652 429.933
Pd 421.84 414.642 428.839
Pd 422.441 415.332 426.353
Pd 424.579 416.872 425.962
Pd 424.022 416.164 428.592
Pd 422.333 417.867 427.249
Pd 423.119 418.83 424.848
Pd 425.304 420.257 424.41
Pd 424.681 419.564 426.871
Pd 423.132 421.494 425.759
Pd 423.924 422.374 423.279
Pd 426.252 423.62 422.913
Pd 425.454 422.928 425.401
Pd 424.037 424.879 424.098
Pd 424.86 425.736 421.573
Pd 426.941 427.474 421.169
Pd 426.215 426.56 423.87
Pd 424.886 428.54 422.583
Pd 425.481 429.438 419.827
Pd 427.796 430.799 419.745
Pd 426.964 429.963 422.251
Pd 425.584 431.979 421.055
Pd 426.257 432.728 418.565
Pd 428.608 433.72 418.326
Pd 427.834 433.378 420.793
Pd 426.288 435.18 419.597
Pd 427.211 435.843 417.053
Pd 428.542 436.394 419.347
Pd 426.959 438.195 418.277
Pd 425.194 414.232 429.867
Pd 426.089 415.139 427.314
Pd 428.358 416.547 426.926
Pd 427.594 415.861 429.482
Pd 426.113 417.51 428.28
Pd 426.862 418.496 425.943
Pd 429.131 419.89 425.399
Pd 428.332 419.22 427.951
Pd 426.943 421.091 426.518
Pd 427.763 421.839 424.021
Pd 429.802 423.592 423.731
Pd 429.08 422.694 426.204
Pd 427.638 424.426 424.96
Pd 428.265 425.489 422.462
Pd 430.598 427.031 422.403
Pd 429.851 426.213 424.716
Pd 428.327 428.08 423.584
Pd 429.147 428.911 420.889
Pd 431.443 430.295 420.903
Pd 430.702 429.457 423.292
Pd 429.285 431.471 422.099
Pd 430.018 432.172 419.708
Pd 431.563 432.861 421.954
Pd 430.048 434.601 420.573
Pd 429.705 417.215 429.151
Pd 430.477 418.088 426.743
Pd 432.778 419.635 426.274
Pd 431.931 418.75 428.847
Pd 430.51 420.633 427.636
Pd 431.216 421.528 425.14
Pd 433.579 422.961 424.851
Pd 432.654 422.184 427.294
Pd 431.328 424.265 426.165
Pd 432.188 424.932 423.546
Pd 434.339 426.735 423.207
Pd 433.507 425.64 425.815
Pd 432.185 427.599 424.463
Pd 433.011 428.434 421.969
Pd 434.326 429.093 424.344
Pd 432.805 430.888 423.156
Pd 433.991 420.519 428.652
Pd 434.952 421.005 426.15
Pd 437.037 422.752 426.059
Pd 436.206 421.886 428.21
Pd 434.875 423.88 427.055
Pd 435.893 424.689 424.592
Pd 436.929 425.406 426.863
Pd 435.696 427.186 425.451
Pd 438.076 423.473 428.185
Pd 407.326 427.541 421.56
Pd 409.764 423.441 423.953
Pd 408.543 425.565 422.887
Pd 410.622 427.102 422.401
Pd 410.005 426.172 424.998
Pd 408.649 428.249 423.763
Pd 409.364 429.346 421.028
Pd 411.531 430.649 420.655
Pd 410.78 429.921 423.272
Pd 412.631 419.636 426.34
Pd 411.284 421.604 425.186
Pd 413.41 423.273 425.095
Pd 412.494 422.337 427.498
Pd 411.285 424.179 426.124
Pd 412.113 425.273 423.716
Pd 414.194 426.762 423.324
Pd 413.577 425.881 425.849
Pd 412.179 427.925 424.577
Pd 412.969 428.743 422.079
Pd 414.975 430.469 421.706
Pd 414.276 429.582 424.229
Pd 412.893 431.375 423.081
Pd 413.703 432.226 420.512
Pd 415.882 433.788 420.142
Pd 415.059 432.892 422.721
Pd 415.39 416.032 428.973
Pd 414.101 417.939 427.704
Pd 416.336 419.442 427.532
Pd 415.545 418.475 430.007
Pd 414.215 420.502 428.69
Pd 414.944 421.274 426.368
Pd 417.042 422.907 425.844
Pd 416.399 421.917 428.404
Pd 414.862 423.897 427.207
Pd 415.736 424.95 424.588
Pd 418.061 426.42 424.18
Pd 417.208 425.559 426.736
Pd 415.787 427.594 425.5
Pd 416.359 428.564 422.979
Pd 418.775 430.063 422.819
Pd 417.968 429.031 425.183
Pd 416.51 431.172 423.966
Pd 417.221 431.913 421.434
Pd 419.388 433.417 421.081
Pd 418.844 432.64 423.601
Pd 417.175 434.401 422.308
Pd 418.06 435.448 419.933
Pd 420.386 436.74 419.745
Pd 419.329 435.94 422.173
Pd 418.75 412.458 431.258
Pd 416.919 414.158 430.215
Pd 419.525 415.626 429.976
Pd 418.709 414.847 432.34
Pd 416.963 416.581 431.323
Pd 417.724 417.569 428.733
Pd 420.049 418.927 428.635
Pd 419.177 418.047 431.061
Pd 417.745 420.032 429.722
Pd 418.678 420.944 427.16
Pd 420.876 422.444 426.732
Pd 420.126 421.596 429.423
Pd 418.655 423.487 428.054
Pd 419.437 424.481 425.593
Pd 421.77 425.987 425.266
Pd 420.827 425.028 427.723
Pd 419.447 427.09 426.612
Pd 420.253 428.021 424.074
Pd 422.501 429.465 423.699
Pd 421.815 428.623 426.181
Pd 420.232 430.536 424.92
Pd 421.193 431.574 422.444
Pd 423.467 432.997 422.196
Pd 422.607 432.221 424.655
Pd 420.917 434.063 423.513
Pd 421.619 434.835 420.924
Pd 423.973 436.285 420.872
Pd 423.189 435.403 423.422
Pd 421.758 437.412 422.106
Pd 422.621 438.108 419.606
Pd 424.939 439.473 419.411
Pd 424.159 438.723 421.806
Pd 421 413.718 431.377
Pd 423.03 415.357 430.971
Pd 420.856 416.348 432.257
Pd 421.661 417.263 429.725
Pd 423.818 418.737 429.38
Pd 423.216 417.771 431.757
Pd 421.612 419.798 430.786
Pd 422.395 420.589 428.244
Pd 424.679 422.226 427.836
Pd 423.938 421.203 430.415
Pd 422.224 423.083 429.106
Pd 423.161 423.954 426.555
Pd 425.317 425.693 426.327
Pd 424.657 424.698 428.723
Pd 423.143 426.659 427.492
Pd 423.824 427.57 424.962
Pd 426.225 429.097 424.848
Pd 425.257 428.21 427.225
Pd 423.921 430.195 425.987
Pd 424.652 430.982 423.412
Pd 427.049 432.485 423.285
Pd 426.111 431.765 425.722
Pd 424.82 433.684 424.561
Pd 425.648 434.564 422.036
Pd 427.956 435.961 421.929
Pd 427.217 434.945 424.298
Pd 425.517 436.782 423.124
Pd 426.37 437.603 420.708
Pd 425.52 416.701 430.718
Pd 427.568 418.403 430.368
Pd 425.33 419.27 431.653
Pd 426.112 420.311 429.054
Pd 428.402 421.76 428.941
Pd 427.608 420.847 431.283
Pd 426.106 422.747 430.101
Pd 426.861 423.715 427.649
Pd 429.113 425.305 427.237
Pd 428.377 424.335 429.862
Pd 426.924 426.31 428.54
Pd 427.613 426.993 426.024
Pd 429.899 428.648 425.638
Pd 429.152 427.928 428.191
Pd 427.618 429.809 427.029
Pd 428.44 430.661 424.473
Pd 430.714 432.042 424.309
Pd 429.995 431.124 426.719
Pd 428.46 433.024 425.455
Pd 429.486 433.996 423.098
Pd 429.873 419.664 430.217
Pd 431.906 421.278 429.859
Pd 429.69 422.423 431.026
Pd 430.424 423.116 428.551
Pd 432.607 424.764 428.386
Pd 432.013 423.966 430.854
Pd 430.49 425.863 429.58
Pd 431.369 426.811 427.083
Pd 433.674 428.341 426.829
Pd 432.769 427.467 429.393
Pd 431.33 429.325 428.205
Pd 432.13 430.048 425.593
Pd 434.127 422.759 429.476
Pd 436.048 424.433 429.298
Pd 434.089 425.559 430.551
Pd 434.675 426.286 428.028
Pd 410.07 428.761 425.795
Pd 412.802 425.011 428.358
Pd 411.34 426.802 427.124
Pd 413.586 428.555 426.638
Pd 412.924 427.476 429.25
Pd 411.43 429.474 428.024
Pd 412.157 430.407 425.504
Pd 414.262 431.904 425.257
Pd 413.646 431.133 427.692
Pd 415.661 421.075 430.844
Pd 414.063 423.001 429.538
Pd 416.514 424.656 429.316
Pd 415.764 423.764 431.741
Pd 414.325 425.552 430.493
Pd 415.101 426.562 427.969
Pd 417.322 428.209 427.755
Pd 416.502 427.152 430.286
Pd 414.993 429.018 428.819
Pd 415.938 430.087 426.502
Pd 418.052 431.727 426.048
Pd 417.3 430.731 428.765
Pd 415.894 432.809 427.305
Pd 416.485 433.62 424.758
Pd 418.623 435.184 424.455
Pd 418.052 434.19 427.156
Pd 418.706 417.383 433.403
Pd 417.085 419.131 432.164
Pd 419.33 420.69 431.768
Pd 418.747 419.924 434.172
Pd 417.188 421.783 432.934
Pd 417.878 422.611 430.606
Pd 420.158 424.233 430.275
Pd 419.383 423.323 432.873
Pd 417.925 425.286 431.45
Pd 418.653 426.139 429.072
Pd 420.909 427.678 428.673
Pd 420.242 426.692 431.183
Pd 418.835 428.71 430.084
Pd 419.63 429.732 427.419
Pd 421.861 431.273 427.222
Pd 421.14 430.314 429.732
Pd 419.425 432.35 428.409
Pd 420.254 433.152 425.869
Pd 422.414 434.697 425.88
Pd 421.672 433.76 428.321
Pd 420.11 435.702 426.832
Pd 420.952 436.608 424.49
Pd 423.262 437.772 424.231
Pd 422.397 437.107 426.752
Pd 421.007 418.747 433.305
Pd 423.203 420.146 432.927
Pd 420.843 421.333 434.131
Pd 421.712 422.226 431.703
Pd 423.85 423.835 431.176
Pd 423.196 422.824 433.936
Pd 421.822 424.702 432.539
Pd 422.372 425.756 430.037
Pd 424.663 427.285 429.77
Pd 423.999 426.446 432.355
Pd 422.406 428.341 430.952
Pd 423.16 429.148 428.47
Pd 425.272 430.859 428.195
Pd 424.699 429.843 430.781
Pd 423.247 431.825 429.516
Pd 424.05 432.847 427.062
Pd 426.439 434.213 426.695
Pd 425.492 433.395 429.25
Pd 424.031 435.358 427.957
Pd 424.82 436.014 425.532
Pd 425.279 421.946 432.444
Pd 427.533 423.352 432.354
Pd 425.248 424.381 433.432
Pd 426.107 425.322 430.993
Pd 428.236 427.084 430.68
Pd 427.496 425.784 433.107
Pd 426.103 427.95 431.998
Pd 426.874 428.918 429.309
Pd 429.186 430.394 429.243
Pd 428.37 429.608 431.71
Pd 426.783 431.352 430.368
Pd 427.649 432.219 427.92
Pd 429.77 424.954 432.126
Pd 431.871 426.353 431.83
Pd 429.693 427.545 432.684
Pd 430.547 428.486 430.493
Pd 412.93 430.017 430.141
Pd 415.697 426.201 432.746
Pd 414.247 428.201 431.304
Pd 416.561 429.549 431.004
Pd 415.639 428.686 433.521
Pd 414.457 430.638 432.108
Pd 414.971 431.792 429.823
Pd 417.071 433.393 429.511
Pd 416.634 432.153 431.834
Pd 418.678 422.313 435.06
Pd 417.186 424.21 434.022
Pd 419.544 425.76 433.65
Pd 418.687 424.915 436.167
Pd 417.31 426.768 434.883
Pd 418.004 427.822 432.497
Pd 420.289 429.326 432.156
Pd 419.385 428.486 434.639
Pd 417.939 430.367 433.227
Pd 418.773 431.305 430.802
Pd 421.046 432.883 430.541
Pd 420.322 431.866 433.051
Pd 418.75 433.774 431.838
Pd 419.246 434.845 429.334
Pd 421.656 436.108 428.98
Pd 420.907 435.414 431.339
Pd 420.95 423.788 434.982
Pd 423.057 425.401 434.809
Pd 420.876 426.359 435.928
Pd 421.619 427.373 433.497
Pd 423.958 428.962 433.15
Pd 423.162 427.755 435.688
Pd 421.81 429.918 434.334
Pd 422.56 431.036 431.893
Pd 424.81 432.413 431.59
Pd 423.953 431.617 434.086
Pd 422.536 433.621 432.717
Pd 423.218 434.585 430.333
Pd 425.468 426.972 434.583
Pd 427.471 428.42 434.083
Pd 425.25 429.447 435.154
Pd 426.191 430.645 432.929
Pd 415.88 431.298 434.426
Pd 418.621 427.528 437.056
Pd 417.224 429.213 435.581
Pd 419.649 431.066 435.39
Pd 418.657 429.976 437.842
Pd 417.091 431.716 436.56
Pd 418.07 432.891 434.231
Pd 420.249 434.363 433.795
Pd 419.657 433.628 436.255
Pd 420.961 429.098 436.843
Pd 423.206 430.525 436.315
Pd 421.069 431.622 437.554
Pd 421.832 432.69 435.127
Pd 418.744 432.395 438.22
